<additional><route id="routeRight" edges="bottom right top left" /><route id="routeLeft" edges="top left bottom right" /><route id="routeTop" edges="left bottom right top" /><route id="routeBottom" edges="bottom right top left" /><rerouter id="rerouterBottom" edges="bottom"><interval begin="0" end="100000"><routeProbReroute id="routeRight" /></interval></rerouter><rerouter id="rerouterTop" edges="top"><interval begin="0" end="100000"><routeProbReroute id="routeLeft" /></interval></rerouter></additional>