<?xml version="1.0" encoding="UTF-8"?>

<!-- generated on 02/03/21 16:25:13 by Eclipse SUMO netconvert Version 1.8.0
<configuration xmlns:xsi="http://www.w3.org/2001/XMLSchema-instance" xsi:noNamespaceSchemaLocation="http://sumo.dlr.de/xsd/netconvertConfiguration.xsd">

    <input>
        <node-files value="node.xml"/>
        <edge-files value="edges.xml"/>
        <type-files value="types.xml"/>
    </input>

    <output>
        <output-file value="circular.net.xml"/>
    </output>

    <report>
        <aggregate-warnings value="5"/>
    </report>

</configuration>
-->

<net version="1.6" junctionCornerDetail="5" limitTurnSpeed="5.50" xmlns:xsi="http://www.w3.org/2001/XMLSchema-instance" xsi:noNamespaceSchemaLocation="http://sumo.dlr.de/xsd/net_file.xsd">

    <location netOffset="0.00,0.00" convBoundary="0.00,0.00,1250.00,1250.00" origBoundary="0.00,0.00,1250.00,1250.00" projParameter="!"/>

    <type id="edgeType" numLanes="2" speed="36.10"/>

    <edge id=":bottom-left_0" function="internal">
        <lane id=":bottom-left_0_0" index="0" speed="6.08" length="7.74" shape="-4.80,0.00 -4.50,-2.10 -3.60,-3.60 -2.10,-4.50 0.00,-4.80"/>
    </edge>
    <edge id=":bottom-left_1" function="internal">
        <lane id=":bottom-left_1_0" index="0" speed="3.90" length="2.58" shape="-1.60,0.00 -1.50,-0.70 -1.20,-1.20 -0.70,-1.50 0.00,-1.60"/>
    </edge>
    <edge id=":bottom-right_0" function="internal">
        <lane id=":bottom-right_0_0" index="0" speed="6.08" length="7.74" shape="1250.00,-4.80 1252.10,-4.50 1253.60,-3.60 1254.50,-2.10 1254.80,0.00"/>
    </edge>
    <edge id=":bottom-right_1" function="internal">
        <lane id=":bottom-right_1_0" index="0" speed="3.90" length="2.58" shape="1250.00,-1.60 1250.70,-1.50 1251.20,-1.20 1251.50,-0.70 1251.60,0.00"/>
    </edge>
    <edge id=":top-left_0" function="internal">
        <lane id=":top-left_0_0" index="0" speed="6.08" length="7.74" shape="0.00,1254.80 -2.10,1254.50 -3.60,1253.60 -4.50,1252.10 -4.80,1250.00"/>
    </edge>
    <edge id=":top-left_1" function="internal">
        <lane id=":top-left_1_0" index="0" speed="3.90" length="2.58" shape="0.00,1251.60 -0.70,1251.50 -1.20,1251.20 -1.50,1250.70 -1.60,1250.00"/>
    </edge>
    <edge id=":top-right_0" function="internal">
        <lane id=":top-right_0_0" index="0" speed="6.08" length="7.74" shape="1254.80,1250.00 1254.50,1252.10 1253.60,1253.60 1252.10,1254.50 1250.00,1254.80"/>
    </edge>
    <edge id=":top-right_1" function="internal">
        <lane id=":top-right_1_0" index="0" speed="3.90" length="2.58" shape="1251.60,1250.00 1251.50,1250.70 1251.20,1251.20 1250.70,1251.50 1250.00,1251.60"/>
    </edge>

    <edge id="bottom" from="bottom-left" to="bottom-right" priority="-1" type="edgeType">
        <lane id="bottom_0" index="0" speed="36.10" length="1250.00" shape="0.00,-4.80 1250.00,-4.80"/>
        <lane id="bottom_1" index="1" speed="36.10" length="1250.00" shape="0.00,-1.60 1250.00,-1.60"/>
    </edge>
    <edge id="left" from="top-left" to="bottom-left" priority="-1" type="edgeType">
        <lane id="left_0" index="0" speed="36.10" length="1250.00" shape="-4.80,1250.00 -4.80,0.00"/>
        <lane id="left_1" index="1" speed="36.10" length="1250.00" shape="-1.60,1250.00 -1.60,0.00"/>
    </edge>
    <edge id="right" from="bottom-right" to="top-right" priority="-1" type="edgeType">
        <lane id="right_0" index="0" speed="36.10" length="1250.00" shape="1254.80,0.00 1254.80,1250.00"/>
        <lane id="right_1" index="1" speed="36.10" length="1250.00" shape="1251.60,0.00 1251.60,1250.00"/>
    </edge>
    <edge id="top" from="top-right" to="top-left" priority="-1" type="edgeType">
        <lane id="top_0" index="0" speed="36.10" length="1250.00" shape="1250.00,1254.80 0.00,1254.80"/>
        <lane id="top_1" index="1" speed="36.10" length="1250.00" shape="1250.00,1251.60 0.00,1251.60"/>
    </edge>

    <junction id="bottom-left" type="priority" x="0.00" y="0.00" incLanes="left_0 left_1" intLanes=":bottom-left_0_0 :bottom-left_1_0" shape="-6.40,0.00 0.00,0.00 0.00,-6.40 -3.56,-5.69 -4.80,-4.80 -5.69,-3.56 -6.22,-1.96">
        <request index="0" response="00" foes="00" cont="0"/>
        <request index="1" response="00" foes="00" cont="0"/>
    </junction>
    <junction id="bottom-right" type="priority" x="1250.00" y="0.00" incLanes="bottom_0 bottom_1" intLanes=":bottom-right_0_0 :bottom-right_1_0" shape="1250.00,0.00 1256.40,0.00 1255.69,-3.56 1254.80,-4.80 1253.56,-5.69 1251.96,-6.22 1250.00,-6.40">
        <request index="0" response="00" foes="00" cont="0"/>
        <request index="1" response="00" foes="00" cont="0"/>
    </junction>
    <junction id="top-left" type="priority" x="0.00" y="1250.00" incLanes="top_0 top_1" intLanes=":top-left_0_0 :top-left_1_0" shape="0.00,1256.40 0.00,1250.00 -6.40,1250.00 -5.69,1253.56 -4.80,1254.80 -3.56,1255.69 -1.96,1256.22">
        <request index="0" response="00" foes="00" cont="0"/>
        <request index="1" response="00" foes="00" cont="0"/>
    </junction>
    <junction id="top-right" type="priority" x="1250.00" y="1250.00" incLanes="right_0 right_1" intLanes=":top-right_0_0 :top-right_1_0" shape="1256.40,1250.00 1250.00,1250.00 1250.00,1256.40 1253.56,1255.69 1254.80,1254.80 1255.69,1253.56 1256.22,1251.96">
        <request index="0" response="00" foes="00" cont="0"/>
        <request index="1" response="00" foes="00" cont="0"/>
    </junction>

    <connection from="bottom" to="right" fromLane="0" toLane="0" via=":bottom-right_0_0" dir="l" state="M"/>
    <connection from="bottom" to="right" fromLane="1" toLane="1" via=":bottom-right_1_0" dir="l" state="M"/>
    <connection from="left" to="bottom" fromLane="0" toLane="0" via=":bottom-left_0_0" dir="l" state="M"/>
    <connection from="left" to="bottom" fromLane="1" toLane="1" via=":bottom-left_1_0" dir="l" state="M"/>
    <connection from="right" to="top" fromLane="0" toLane="0" via=":top-right_0_0" dir="l" state="M"/>
    <connection from="right" to="top" fromLane="1" toLane="1" via=":top-right_1_0" dir="l" state="M"/>
    <connection from="top" to="left" fromLane="0" toLane="0" via=":top-left_0_0" dir="l" state="M"/>
    <connection from="top" to="left" fromLane="1" toLane="1" via=":top-left_1_0" dir="l" state="M"/>

    <connection from=":bottom-left_0" to="bottom" fromLane="0" toLane="0" dir="l" state="M"/>
    <connection from=":bottom-left_1" to="bottom" fromLane="0" toLane="1" dir="l" state="M"/>
    <connection from=":bottom-right_0" to="right" fromLane="0" toLane="0" dir="l" state="M"/>
    <connection from=":bottom-right_1" to="right" fromLane="0" toLane="1" dir="l" state="M"/>
    <connection from=":top-left_0" to="left" fromLane="0" toLane="0" dir="l" state="M"/>
    <connection from=":top-left_1" to="left" fromLane="0" toLane="1" dir="l" state="M"/>
    <connection from=":top-right_0" to="top" fromLane="0" toLane="0" dir="l" state="M"/>
    <connection from=":top-right_1" to="top" fromLane="0" toLane="1" dir="l" state="M"/>

</net>
